-- =====================================================================
-- A 5000 3D3P PROBLEM
-- =====================================================================
--DEBUG
--1 1 1 1 1 1 1 1 1 1
--1 1 1 1 1 1 1 1 1 1
--1 1 1 1 1 1 1 1 5 1 /
RUNSPEC
TITLE
   3D3P 5000 CELLS

DIMENS
   30   34    5  /

NONNC

OIL

WATER

GAS

DISGAS

FIELD

EQLDIMS
    1  100   10    1    1 /

TABDIMS
    1    1   16   12    1   12 /

WELLDIMS
   24    4    1   24 /

NUPCOL
    4 /

START
   1 'JAN' 1986  /

NSTACK
   24 /

GRID    ================================================================

GRIDFILE
 2 /
 
INIT

--     ARRAY  VALUE     ------- BOX ------

EQUALS
      'DX'     700      /
      'DY'     700      /
      'PORO'  0.2       /
      'PERMX' 500       /
      'TOPS'  5000      1  30  1  34  1  1  /

      'DZ'    50        1  30  1  34  1  4  /
      'DZ'   100        1  30  1  34  5  5  /

      'PORO' 0.0       29  30  1  34  1  1 /
      'PORO' 0.0       28  28  1  16  1  1 /
      'PORO' 0.0       28  28  19 34  1  1 /

/       EQUALS IS TERMINATED BY A NULL RECORD

-- THE Y AND Z DIRECTION PERMEABILITIES ARE COPIED FROM PERMX
--    SOURCE  DESTINATION  ------- BOX ------
COPY
      'PERMX'    'PERMY'   /
      'PERMX'    'PERMZ'   /
/

MULTIPLY
  'PERMZ' 0.1 /
  /

--DEBUG

--1 5*0 1 /
RPTGRID                                          FIELD   00:41 16 SEP 85
   0   0   1   0   0   0   0   0   0   0   0   0   0   0   0   0   0
   0   0   0   0   0   0   0   /

PROPS   ***************************************************************


SWFN
    .25       .00       .0
    .75       .80       .0
   1.0       1.0        .0
  /

SOF3
    .00       .00    .00
    .25       .00    .00
    .75      0.8     .80
  /

SGFN
    .00       .00    .0
    .05       .00    .0
    .75      1.00    .0
  /

RPTPROPS
  8*0 /

DENSITY
        49.94    62.43    0.061    /

ROCK
        4000   4.0E-6   /

PVTW
        4000   1.00    3.0E-6     0.50   0   /

PVTO
0.165   400  1.012   .40  /
0.335   800  1.0255  .39  /
0.500  1200  1.038   .38  /
0.665  1600  1.051   .37  /
0.828  2000  1.063   .36  /
0.985  2400  1.075   .35  /
1.130  2800  1.087   .34
       3200  1.080   .35
       3600  1.074   .36
       4000  1.068   .37
       4400  1.062   .38  /
/

PVDG
 400  5.90  0.013
 800  2.95  0.0135
1200  1.96  0.014
1600  1.47  0.0145
2000  1.18  0.015
2400  0.98  0.0155
2800  0.84  0.016
3200  0.74  0.0165
3600  0.65  0.017
4000  0.56  0.0175
4400  0.51  0.018
/


SOLUTION  *************************************************************

EQUIL      1 TABLES   10 NODES IN EACH           FIELD   23:34 15 SEP 85
  5040.0 3600.00 5200.00  .00000 4040.00  .00000     1      0       0 /

RSVD
4000 1.13
6000 1.13 /

RPTSOL                                           FIELD   00:42 16 SEP 85
  'RESTART=2'  /

SUMMARY ***************************************************************

FPR
FOPR
FGPR
FWPR
FVPR
FVIR
WOPR
 'P*' /
/
WGPR
 'P*' /
/
WWPR
 'P*' /
/
WWCT
 'P*' /
/
WWIR
 'I*' 
/
WBHP
/


  
SCHEDULE ===============================================================

DRSDT
0.0 /

RPTSCHED
 'RESTART=2' /

WELSPECS
    'P12'      'G'    10 12   1*   'OIL'  /
    'P16'      'G'    10 16   1*   'OIL'  /
    'P20'      'G'    10 20   1*   'OIL'  /
    'P24'      'G'    10 24   1*   'OIL'  /
/

COMPDAT
    'P*' 2*  3  3 'OPEN' 0   -1   0.5  /
    /

WCONPROD
     'P*' 'OPEN' 'ORAT' 10000  4*  1000 /
  /

TSTEP
  40.0 /

WELSPECS
    'P04'      'G'    10   4   1*   'OIL'  /
    'P08'      'G'    10   8   1*   'OIL'  /
    'P28'      'G'    10  28   1*   'OIL'  /
    'P32'      'G'    10  32   1*   'OIL'  /
    'I15'      'G'    23  15   1*   'WAT'  /
    'I19'      'G'    23  19   1*   'WAT'  /
    'I23'      'G'    23  23   1*   'WAT'  /
/

COMPDAT
    'P*'        2*   3  3 'OPEN' 0   -1   0.5  /
    'I*'        2*   5  5 'OPEN' 0   -1   0.5  /
    /

WCONPROD
     'P*'       'OPEN' 'ORAT' 10000  4*                      1000 /
  /

GCONINJE
     'FIELD' 'WAT' 'VREP' 3* 2.7 /	
  /
WCONINJE
     'I*'       'WAT' 'OPEN' 'GRUP'  2*  6000 /
  /

TSTEP
  30.0 /

WELSPECS
    'P02'      'G'     2   2   1*   'OIL'  /
    'P06'      'G'     2   6   1*   'OIL'  /
    'P26'      'G'     2  26   1*   'OIL'  /
    'P30'      'G'     2  30   1*   'OIL'  /
    'I03'      'G'    23   3   1*   'WAT'  /
    'I07'      'G'    23   7   1*   'WAT'  /
    'I11'      'G'    23  11   1*   'WAT'  /
 /

COMPDAT
    'P*'        2*   3  3 'OPEN' 0   -1   0.5  /
    'I*'        2*   5  5 'OPEN' 0   -1   0.5  /
 /

WCONPROD
     'P*'       'OPEN' 'ORAT' 10000  4*   1000 /
  /
GCONINJE
   'FIELD' 'WAT' 'VREP' 3* 5.4 /
  /	
WCONINJE
     'I*'       'WAT' 'OPEN' 'GRUP'  2*  6000 /
  /

TSTEP
  30.0 /

WELSPECS
    'P10'      'G'     2 10   1*   'OIL'  /
    'P14'      'G'     2 14   1*   'OIL'  /
    'P18'      'G'     2 18   1*   'OIL'  /
    'P22'      'G'     2 22   1*   'OIL'  /
    'I27'      'G'    23 27   1*   'WAT'  /
    'I31'      'G'    23 31   1*   'WAT'  /
/

COMPDAT
    'P*'        2*   3  3 'OPEN' 0   -1   0.5  /
    'I*'        2*   5  5 'OPEN' 0   -1   0.5  /
    /

WCONPROD
     'P*'       'OPEN' 'ORAT' 10000  4*  1000 /
  /

GCONINJE
    'FIELD' 'WAT' 'VREP' 3* 7.2 /	
  /
WCONINJE
     'I*'       'WAT' 'OPEN' 'GRUP' 2* 6000 /
  /

WECON
 'P*' 3000 1* 0.7 3.0 1* 'WELL' /
 /

GECON
'G' 10000 5* 'YES' /
/

TSTEP
  50.0 185.0 9*365.0
 /

END     ================================================================
